Circuit: * D:\Met4FoF-SmartUpUnit\doc\Hardware_simulations\ADC_frontend.asc


Date: Mon May 18 12:34:26 2020
Total elapsed time: 0.022 seconds.

tnom = 27
temp = 27
method = trap
totiter = 0
traniter = 0
tranpoints = 0
accept = 0
rejected = 0
matrix size = 5
fillins = 3
solver = Normal

